*SPEF "ieee 1481-1999"
*DESIGN "user_proj_example"
*DATE "11:11:11 Fri 11 11, 1111"
*VENDOR "OpenRCX"
*PROGRAM "Parallel Extraction"
*VERSION "1.0"
*DESIGN_FLOW "NAME_SCOPE LOCAL" "PIN_CAP NONE"
*DIVIDER /
*DELIMITER :
*BUS_DELIMITER []
*T_UNIT 1 NS
*C_UNIT 1 PF
*R_UNIT 1 OHM
*L_UNIT 1 HENRY

*NAME_MAP
*1 a[0]
*2 a[1]
*3 a[2]
*4 a[3]
*5 a[4]
*6 a[5]
*7 a[6]
*8 a[7]
*9 b[0]
*10 b[1]
*11 b[2]
*12 b[3]
*13 b[4]
*14 b[5]
*15 b[6]
*16 b[7]
*17 p[0]
*18 p[1]
*19 p[2]
*20 p[3]
*21 p[4]
*22 p[5]
*23 p[6]
*24 p[7]
*27 _000_
*28 _001_
*29 _002_
*30 _003_
*31 _004_
*32 _005_
*33 _006_
*34 _007_
*35 _008_
*36 _009_
*37 _010_
*38 _011_
*39 _012_
*40 _013_
*41 _014_
*42 _015_
*43 _016_
*44 _017_
*45 _018_
*46 _019_
*47 _020_
*48 _021_
*49 _022_
*50 _023_
*51 _024_
*52 _025_
*53 _026_
*54 _027_
*55 _028_
*56 _029_
*57 _030_
*58 _031_
*59 _032_
*60 _033_
*61 _034_
*62 _035_
*63 _036_
*64 _037_
*65 _038_
*66 _039_
*67 _040_
*68 _041_
*69 _042_
*70 _043_
*71 _044_
*72 _045_
*73 _046_
*74 _047_
*75 _048_
*76 _049_
*77 _050_
*78 _051_
*79 _052_
*80 _053_
*81 _054_
*82 _055_
*83 _056_
*84 _057_
*85 _058_
*86 _059_
*87 _060_
*88 _061_
*89 _062_
*90 _063_
*91 _064_
*92 _065_
*93 _066_
*94 _067_
*95 _068_
*96 _069_
*97 _070_
*98 _071_
*99 _072_
*100 _073_
*101 _074_
*102 _075_
*103 _076_
*104 _077_
*105 _078_
*106 _079_
*107 _080_
*108 _081_
*109 _082_
*110 _083_
*111 _084_
*112 _085_
*113 _086_
*114 _087_
*115 _088_
*116 _089_
*117 _090_
*118 _091_
*119 _092_
*120 _093_
*121 _094_
*122 _095_
*123 _096_
*124 _097_
*125 _098_
*126 _099_
*127 _100_
*128 _101_
*129 _102_
*130 _103_
*131 _104_
*132 _105_
*133 _106_
*134 _107_
*135 _108_
*136 _109_
*137 _110_
*138 _111_
*139 _112_
*140 _113_
*141 _114_
*142 _115_
*143 _116_
*144 _117_
*145 _118_
*146 _119_
*147 _120_
*148 _121_
*149 _122_
*150 _123_
*151 _124_
*152 _125_
*153 _126_
*154 _127_
*155 _128_
*156 _129_
*157 _130_
*158 _131_
*159 _132_
*160 _133_
*161 _134_
*162 _135_
*163 _136_
*164 _137_
*165 _138_
*166 _139_
*167 _140_
*168 _141_
*169 _142_
*170 _143_
*171 _144_
*172 _145_
*173 _146_
*174 _147_
*175 _148_
*176 _149_
*177 _150_
*178 _151_
*179 _152_
*180 _153_
*181 _154_
*182 _155_
*183 _156_
*184 _157_
*185 _158_
*186 _159_
*187 _160_
*188 _161_
*189 _162_
*190 _163_
*191 _164_
*192 _165_
*193 _166_
*194 _167_
*195 _168_
*196 _169_
*197 _170_
*198 _171_
*199 _172_
*200 _173_
*201 _174_
*202 _175_
*203 _176_
*204 _177_
*205 _178_
*206 _179_
*207 _180_
*208 _181_
*209 _182_
*210 _183_
*211 _184_
*212 _185_
*213 _186_
*214 _187_
*215 _188_
*216 _189_
*217 _190_
*218 _191_
*219 _192_
*220 _193_
*221 _194_
*222 _195_
*223 _196_
*224 _197_
*225 _198_
*226 _199_
*227 _200_
*228 _201_
*229 _202_
*230 _203_
*231 _204_
*232 _205_
*233 _206_
*234 _207_
*235 _208_
*236 _209_
*237 _210_
*238 _211_
*239 _212_
*240 _213_
*241 _214_
*242 _215_
*243 _216_
*244 _217_
*245 _218_
*246 _219_
*247 _220_
*248 _221_
*249 _222_
*250 _223_
*251 _224_
*252 _225_
*253 _226_
*254 _227_
*255 _228_
*256 _229_
*257 _230_
*258 _231_
*259 _232_
*260 _233_
*261 net1
*262 net10
*263 net11
*264 net12
*265 net13
*266 net14
*267 net15
*268 net16
*269 net17
*270 net18
*271 net19
*272 net2
*273 net20
*274 net21
*275 net22
*276 net23
*277 net24
*278 net3
*279 net4
*280 net5
*281 net6
*282 net7
*283 net8
*284 net9
*285 ANTENNA__234__A
*286 ANTENNA__240__A
*287 ANTENNA__242__C
*288 ANTENNA__244__A2
*289 ANTENNA__247__A
*290 ANTENNA__247__C
*291 ANTENNA__247__D
*292 ANTENNA__249__A2
*293 ANTENNA__251__A
*294 ANTENNA__252__B1
*295 ANTENNA__255__A
*296 ANTENNA__256__B1
*297 ANTENNA__256__C1
*298 ANTENNA__257__A1
*299 ANTENNA__257__A2
*300 ANTENNA__260__A
*301 ANTENNA__261__A
*302 ANTENNA__262__A
*303 ANTENNA__262__C
*304 ANTENNA__262__D
*305 ANTENNA__263__A2
*306 ANTENNA__263__B1
*307 ANTENNA__265__A
*308 ANTENNA__273__A
*309 ANTENNA__274__B1
*310 ANTENNA__275__A1
*311 ANTENNA__280__A
*312 ANTENNA__281__A
*313 ANTENNA__282__A
*314 ANTENNA__282__B
*315 ANTENNA__283__B1
*316 ANTENNA__285__A
*317 ANTENNA__291__A
*318 ANTENNA__297__C1
*319 ANTENNA__298__A2
*320 ANTENNA__303__A
*321 ANTENNA__303__B
*322 ANTENNA__305__A
*323 ANTENNA__305__B
*324 ANTENNA__307__A
*325 ANTENNA__307__B
*326 ANTENNA__308__A
*327 ANTENNA__308__C
*328 ANTENNA__311__A
*329 ANTENNA__318__A
*330 ANTENNA__318__B
*331 ANTENNA__323__A
*332 ANTENNA__323__B
*333 ANTENNA__326__A
*334 ANTENNA__326__B
*335 ANTENNA__328__A
*336 ANTENNA__328__B
*337 ANTENNA__332__A1
*338 ANTENNA__334__A
*339 ANTENNA__336__A
*340 ANTENNA__338__A
*341 ANTENNA__339__A1
*342 ANTENNA__339__B1
*343 ANTENNA__341__A
*344 ANTENNA__343__A1
*345 ANTENNA__343__A2
*346 ANTENNA__356__A
*347 ANTENNA__356__B
*348 ANTENNA__362__A
*349 ANTENNA__362__B
*350 ANTENNA__368__B
*351 ANTENNA__375__B1
*352 ANTENNA__376__A1
*353 ANTENNA__382__A
*354 ANTENNA__382__B
*355 ANTENNA__393__A
*356 ANTENNA__396__A
*357 ANTENNA__396__B
*358 ANTENNA__402__A
*359 ANTENNA__402__B
*360 ANTENNA__409__A
*361 ANTENNA__412__A
*362 ANTENNA__423__A
*363 ANTENNA__424__A
*364 ANTENNA__427__A1
*365 ANTENNA__428__A
*366 ANTENNA__430__A
*367 ANTENNA__430__B
*368 ANTENNA__437__A
*369 ANTENNA__437__B
*370 ANTENNA__442__A
*371 ANTENNA__452__A
*372 ANTENNA__452__B
*373 ANTENNA__454__A1
*374 ANTENNA__454__A2
*375 ANTENNA__455__A
*376 ANTENNA__455__B
*377 ANTENNA__458__A
*378 ANTENNA__458__B
*379 ANTENNA__458__C
*380 ANTENNA__459__A1
*381 ANTENNA__459__A2
*382 ANTENNA__459__B2
*383 ANTENNA__461__A
*384 ANTENNA_input10_A
*385 ANTENNA_input11_A
*386 ANTENNA_input12_A
*387 ANTENNA_input13_A
*388 ANTENNA_input14_A
*389 ANTENNA_input15_A
*390 ANTENNA_input16_A
*391 ANTENNA_input1_A
*392 ANTENNA_input2_A
*393 ANTENNA_input3_A
*394 ANTENNA_input4_A
*395 ANTENNA_input5_A
*396 ANTENNA_input6_A
*397 ANTENNA_input7_A
*398 ANTENNA_input8_A
*399 ANTENNA_input9_A
*400 ANTENNA_output17_A
*401 ANTENNA_output18_A
*402 ANTENNA_output19_A
*403 ANTENNA_output20_A
*404 ANTENNA_output21_A
*405 ANTENNA_output22_A
*406 ANTENNA_output23_A
*407 ANTENNA_output24_A
*408 FILLER_0_1001
*409 FILLER_0_1007
*410 FILLER_0_1009
*411 FILLER_0_1013
*412 FILLER_0_1019
*413 FILLER_0_1030
*414 FILLER_0_1037
*415 FILLER_0_1049
*416 FILLER_0_1061
*417 FILLER_0_1065
*418 FILLER_0_1077
*419 FILLER_0_1089
*420 FILLER_0_109
*421 FILLER_0_1093
*422 FILLER_0_1105
*423 FILLER_0_1117
*424 FILLER_0_1121
*425 FILLER_0_113
*426 FILLER_0_1133
*427 FILLER_0_1141
*428 FILLER_0_1146
*429 FILLER_0_1149
*430 FILLER_0_1155
*431 FILLER_0_1167
*432 FILLER_0_1175
*433 FILLER_0_1177
*434 FILLER_0_1189
*435 FILLER_0_1201
*436 FILLER_0_1205
*437 FILLER_0_1217
*438 FILLER_0_1229
*439 FILLER_0_1233
*440 FILLER_0_1245
*441 FILLER_0_125
*442 FILLER_0_1257
*443 FILLER_0_1261
*444 FILLER_0_1267
*445 FILLER_0_1275
*446 FILLER_0_1287
*447 FILLER_0_1289
*448 FILLER_0_1301
*449 FILLER_0_1313
*450 FILLER_0_1317
*451 FILLER_0_1329
*452 FILLER_0_1341
*453 FILLER_0_1345
*454 FILLER_0_1357
*455 FILLER_0_1369
*456 FILLER_0_137
*457 FILLER_0_1373
*458 FILLER_0_1385
*459 FILLER_0_1389
*460 FILLER_0_1397
*461 FILLER_0_1401
*462 FILLER_0_141
*463 FILLER_0_1413
*464 FILLER_0_1425
*465 FILLER_0_1429
*466 FILLER_0_1441
*467 FILLER_0_1453
*468 FILLER_0_1457
*469 FILLER_0_1469
*470 FILLER_0_1481
*471 FILLER_0_1485
*472 FILLER_0_1497
*473 FILLER_0_15
*474 FILLER_0_1505
*475 FILLER_0_1510
*476 FILLER_0_1513
*477 FILLER_0_1521
*478 FILLER_0_153
*479 FILLER_0_1533
*480 FILLER_0_1539
*481 FILLER_0_1541
*482 FILLER_0_1553
*483 FILLER_0_1565
*484 FILLER_0_1569
*485 FILLER_0_1581
*486 FILLER_0_1593
*487 FILLER_0_1597
*488 FILLER_0_1609
*489 FILLER_0_1621
*490 FILLER_0_1625
*491 FILLER_0_1633
*492 FILLER_0_1643
*493 FILLER_0_165
*494 FILLER_0_1651
*495 FILLER_0_1653
*496 FILLER_0_1665
*497 FILLER_0_1677
*498 FILLER_0_1681
*499 FILLER_0_169
*500 FILLER_0_1693
*501 FILLER_0_1705
*502 FILLER_0_1709
*503 FILLER_0_1721
*504 FILLER_0_1733
*505 FILLER_0_1737
*506 FILLER_0_1749
*507 FILLER_0_1757
*508 FILLER_0_1762
*509 FILLER_0_1765
*510 FILLER_0_1773
*511 FILLER_0_1785
*512 FILLER_0_179
*513 FILLER_0_1791
*514 FILLER_0_1793
*515 FILLER_0_1805
*516 FILLER_0_1817
*517 FILLER_0_1821
*518 FILLER_0_1833
*519 FILLER_0_1845
*520 FILLER_0_1849
*521 FILLER_0_1861
*522 FILLER_0_1873
*523 FILLER_0_1877
*524 FILLER_0_1887
*525 FILLER_0_1899
*526 FILLER_0_1903
*527 FILLER_0_1905
*528 FILLER_0_191
*529 FILLER_0_1917
*530 FILLER_0_195
*531 FILLER_0_197
*532 FILLER_0_209
*533 FILLER_0_221
*534 FILLER_0_225
*535 FILLER_0_237
*536 FILLER_0_249
*537 FILLER_0_253
*538 FILLER_0_265
*539 FILLER_0_27
*540 FILLER_0_277
*541 FILLER_0_281
*542 FILLER_0_29
*543 FILLER_0_291
*544 FILLER_0_299
*545 FILLER_0_3
*546 FILLER_0_307
*547 FILLER_0_309
*548 FILLER_0_321
*549 FILLER_0_333
*550 FILLER_0_337
*551 FILLER_0_349
*552 FILLER_0_361
*553 FILLER_0_365
*554 FILLER_0_377
*555 FILLER_0_389
*556 FILLER_0_393
*557 FILLER_0_405
*558 FILLER_0_41
*559 FILLER_0_413
*560 FILLER_0_418
*561 FILLER_0_421
*562 FILLER_0_427
*563 FILLER_0_439
*564 FILLER_0_447
*565 FILLER_0_449
*566 FILLER_0_461
*567 FILLER_0_473
*568 FILLER_0_477
*569 FILLER_0_489
*570 FILLER_0_49
*571 FILLER_0_501
*572 FILLER_0_505
*573 FILLER_0_517
*574 FILLER_0_529
*575 FILLER_0_533
*576 FILLER_0_54
*577 FILLER_0_543
*578 FILLER_0_555
*579 FILLER_0_559
*580 FILLER_0_561
*581 FILLER_0_57
*582 FILLER_0_573
*583 FILLER_0_585
*584 FILLER_0_589
*585 FILLER_0_601
*586 FILLER_0_613
*587 FILLER_0_617
*588 FILLER_0_629
*589 FILLER_0_641
*590 FILLER_0_645
*591 FILLER_0_65
*592 FILLER_0_653
*593 FILLER_0_657
*594 FILLER_0_667
*595 FILLER_0_671
*596 FILLER_0_673
*597 FILLER_0_685
*598 FILLER_0_697
*599 FILLER_0_701
*600 FILLER_0_713
*601 FILLER_0_725
*602 FILLER_0_729
*603 FILLER_0_741
*604 FILLER_0_753
*605 FILLER_0_757
*606 FILLER_0_761
*607 FILLER_0_764
*608 FILLER_0_77
*609 FILLER_0_770
*610 FILLER_0_776
*611 FILLER_0_782
*612 FILLER_0_785
*613 FILLER_0_790
*614 FILLER_0_798
*615 FILLER_0_804
*616 FILLER_0_810
*617 FILLER_0_813
*618 FILLER_0_821
*619 FILLER_0_825
*620 FILLER_0_828
*621 FILLER_0_83
*622 FILLER_0_838
*623 FILLER_0_841
*624 FILLER_0_847
*625 FILLER_0_85
*626 FILLER_0_857
*627 FILLER_0_865
*628 FILLER_0_869
*629 FILLER_0_877
*630 FILLER_0_885
*631 FILLER_0_894
*632 FILLER_0_897
*633 FILLER_0_905
*634 FILLER_0_914
*635 FILLER_0_922
*636 FILLER_0_925
*637 FILLER_0_935
*638 FILLER_0_942
*639 FILLER_0_950
*640 FILLER_0_953
*641 FILLER_0_960
*642 FILLER_0_966
*643 FILLER_0_97
*644 FILLER_0_978
*645 FILLER_0_981
*646 FILLER_0_989
*647 FILLER_0_995
*648 FILLER_100_1005
*649 FILLER_100_1017
*650 FILLER_100_1029
*651 FILLER_100_1035
*652 FILLER_100_1037
*653 FILLER_100_1049
*654 FILLER_100_1061
*655 FILLER_100_1073
*656 FILLER_100_1085
*657 FILLER_100_109
*658 FILLER_100_1091
*659 FILLER_100_1093
*660 FILLER_100_1105
*661 FILLER_100_1117
*662 FILLER_100_1129
*663 FILLER_100_1141
*664 FILLER_100_1147
*665 FILLER_100_1149
*666 FILLER_100_1161
*667 FILLER_100_1173
*668 FILLER_100_1185
*669 FILLER_100_1197
*670 FILLER_100_1203
*671 FILLER_100_1205
*672 FILLER_100_121
*673 FILLER_100_1217
*674 FILLER_100_1229
*675 FILLER_100_1241
*676 FILLER_100_1253
*677 FILLER_100_1259
*678 FILLER_100_1261
*679 FILLER_100_1273
*680 FILLER_100_1285
*681 FILLER_100_1297
*682 FILLER_100_1309
*683 FILLER_100_1315
*684 FILLER_100_1317
*685 FILLER_100_1329
*686 FILLER_100_133
*687 FILLER_100_1341
*688 FILLER_100_1353
*689 FILLER_100_1365
*690 FILLER_100_1371
*691 FILLER_100_1373
*692 FILLER_100_1385
*693 FILLER_100_139
*694 FILLER_100_1397
*695 FILLER_100_1409
*696 FILLER_100_141
*697 FILLER_100_1421
*698 FILLER_100_1427
*699 FILLER_100_1429
*700 FILLER_100_1441
*701 FILLER_100_1453
*702 FILLER_100_1465
*703 FILLER_100_1477
*704 FILLER_100_1483
*705 FILLER_100_1485
*706 FILLER_100_1497
*707 FILLER_100_15
*708 FILLER_100_1509
*709 FILLER_100_1521
*710 FILLER_100_153
*711 FILLER_100_1533
*712 FILLER_100_1539
*713 FILLER_100_1541
*714 FILLER_100_1553
*715 FILLER_100_1565
*716 FILLER_100_1577
*717 FILLER_100_1589
*718 FILLER_100_1595
*719 FILLER_100_1597
*720 FILLER_100_1609
*721 FILLER_100_1621
*722 FILLER_100_1633
*723 FILLER_100_1645
*724 FILLER_100_165
*725 FILLER_100_1651
*726 FILLER_100_1653
*727 FILLER_100_1665
*728 FILLER_100_1677
*729 FILLER_100_1689
*730 FILLER_100_1701
*731 FILLER_100_1707
*732 FILLER_100_1709
*733 FILLER_100_1721
*734 FILLER_100_1733
*735 FILLER_100_1745
*736 FILLER_100_1757
*737 FILLER_100_1763
*738 FILLER_100_1765
*739 FILLER_100_177
*740 FILLER_100_1777
*741 FILLER_100_1789
*742 FILLER_100_1801
*743 FILLER_100_1813
*744 FILLER_100_1819
*745 FILLER_100_1821
*746 FILLER_100_1833
*747 FILLER_100_1845
*748 FILLER_100_1857
*749 FILLER_100_1869
*750 FILLER_100_1875
*751 FILLER_100_1877
*752 FILLER_100_1889
*753 FILLER_100_189
*754 FILLER_100_1901
*755 FILLER_100_1913
*756 FILLER_100_1925
*757 FILLER_100_195
*758 FILLER_100_197
*759 FILLER_100_209
*760 FILLER_100_221
*761 FILLER_100_233
*762 FILLER_100_245
*763 FILLER_100_251
*764 FILLER_100_253
*765 FILLER_100_265
*766 FILLER_100_27
*767 FILLER_100_277
*768 FILLER_100_289
*769 FILLER_100_29
*770 FILLER_100_3
*771 FILLER_100_301
*772 FILLER_100_307
*773 FILLER_100_309
*774 FILLER_100_321
*775 FILLER_100_333
*776 FILLER_100_345
*777 FILLER_100_357
*778 FILLER_100_363
*779 FILLER_100_365
*780 FILLER_100_377
*781 FILLER_100_389
*782 FILLER_100_401
*783 FILLER_100_41
*784 FILLER_100_413
*785 FILLER_100_419
*786 FILLER_100_421
*787 FILLER_100_433
*788 FILLER_100_445
*789 FILLER_100_457
*790 FILLER_100_469
*791 FILLER_100_475
*792 FILLER_100_477
*793 FILLER_100_489
*794 FILLER_100_501
*795 FILLER_100_513
*796 FILLER_100_525
*797 FILLER_100_53
*798 FILLER_100_531
*799 FILLER_100_533
*800 FILLER_100_545
*801 FILLER_100_557
*802 FILLER_100_569
*803 FILLER_100_581
*804 FILLER_100_587
*805 FILLER_100_589
*806 FILLER_100_601
*807 FILLER_100_613
*808 FILLER_100_625
*809 FILLER_100_637
*810 FILLER_100_643
*811 FILLER_100_645
*812 FILLER_100_65
*813 FILLER_100_657
*814 FILLER_100_669
*815 FILLER_100_681
*816 FILLER_100_693
*817 FILLER_100_699
*818 FILLER_100_701
*819 FILLER_100_713
*820 FILLER_100_725
*821 FILLER_100_737
*822 FILLER_100_749
*823 FILLER_100_755
*824 FILLER_100_757
*825 FILLER_100_769
*826 FILLER_100_77
*827 FILLER_100_781
*828 FILLER_100_793
*829 FILLER_100_805
*830 FILLER_100_811
*831 FILLER_100_813
*832 FILLER_100_825
*833 FILLER_100_83
*834 FILLER_100_837
*835 FILLER_100_849
*836 FILLER_100_85
*837 FILLER_100_861
*838 FILLER_100_867
*839 FILLER_100_869
*840 FILLER_100_881
*841 FILLER_100_893
*842 FILLER_100_905
*843 FILLER_100_917
*844 FILLER_100_923
*845 FILLER_100_925
*846 FILLER_100_937
*847 FILLER_100_949
*848 FILLER_100_961
*849 FILLER_100_97
*850 FILLER_100_973
*851 FILLER_100_979
*852 FILLER_100_981
*853 FILLER_100_993
*854 FILLER_101_1001
*855 FILLER_101_1007
*856 FILLER_101_1009
*857 FILLER_101_1021
*858 FILLER_101_1033
*859 FILLER_101_1045
*860 FILLER_101_105
*861 FILLER_101_1057
*862 FILLER_101_1063
*863 FILLER_101_1065
*864 FILLER_101_1077
*865 FILLER_101_1089
*866 FILLER_101_1101
*867 FILLER_101_111
*868 FILLER_101_1113
*869 FILLER_101_1119
*870 FILLER_101_1121
*871 FILLER_101_113
*872 FILLER_101_1133
*873 FILLER_101_1145
*874 FILLER_101_1157
*875 FILLER_101_1169
*876 FILLER_101_1175
*877 FILLER_101_1177
*878 FILLER_101_1189
*879 FILLER_101_1201
*880 FILLER_101_1213
*881 FILLER_101_1225
*882 FILLER_101_1231
*883 FILLER_101_1233
*884 FILLER_101_1245
*885 FILLER_101_125
*886 FILLER_101_1257
*887 FILLER_101_1269
*888 FILLER_101_1281
*889 FILLER_101_1287
*890 FILLER_101_1289
*891 FILLER_101_1301
*892 FILLER_101_1313
*893 FILLER_101_1325
*894 FILLER_101_1337
*895 FILLER_101_1343
*896 FILLER_101_1345
*897 FILLER_101_1357
*898 FILLER_101_1369
*899 FILLER_101_137
*900 FILLER_101_1381
*901 FILLER_101_1393
*902 FILLER_101_1399
*903 FILLER_101_1401
*904 FILLER_101_1413
*905 FILLER_101_1425
*906 FILLER_101_1437
*907 FILLER_101_1449
*908 FILLER_101_1455
*909 FILLER_101_1457
*910 FILLER_101_1469
*911 FILLER_101_1481
*912 FILLER_101_149
*913 FILLER_101_1493
*914 FILLER_101_15
*915 FILLER_101_1505
*916 FILLER_101_1511
*917 FILLER_101_1513
*918 FILLER_101_1525
*919 FILLER_101_1537
*920 FILLER_101_1549
*921 FILLER_101_1561
*922 FILLER_101_1567
*923 FILLER_101_1569
*924 FILLER_101_1581
*925 FILLER_101_1593
*926 FILLER_101_1605
*927 FILLER_101_161
*928 FILLER_101_1617
*929 FILLER_101_1623
*930 FILLER_101_1625
*931 FILLER_101_1637
*932 FILLER_101_1649
*933 FILLER_101_1661
*934 FILLER_101_167
*935 FILLER_101_1673
*936 FILLER_101_1679
*937 FILLER_101_1681
*938 FILLER_101_169
*939 FILLER_101_1693
*940 FILLER_101_1705
*941 FILLER_101_1717
*942 FILLER_101_1729
*943 FILLER_101_1735
*944 FILLER_101_1737
*945 FILLER_101_1749
*946 FILLER_101_1761
*947 FILLER_101_1773
*948 FILLER_101_1785
*949 FILLER_101_1791
*950 FILLER_101_1793
*951 FILLER_101_1805
*952 FILLER_101_181
*953 FILLER_101_1817
*954 FILLER_101_1829
*955 FILLER_101_1841
*956 FILLER_101_1847
*957 FILLER_101_1849
*958 FILLER_101_1861
*959 FILLER_101_1873
*960 FILLER_101_1885
*961 FILLER_101_1897
*962 FILLER_101_1903
*963 FILLER_101_1905
*964 FILLER_101_1917
*965 FILLER_101_193
*966 FILLER_101_205
*967 FILLER_101_217
*968 FILLER_101_223
*969 FILLER_101_225
*970 FILLER_101_237
*971 FILLER_101_249
*972 FILLER_101_261
*973 FILLER_101_27
*974 FILLER_101_273
*975 FILLER_101_279
*976 FILLER_101_281
*977 FILLER_101_293
*978 FILLER_101_3
*979 FILLER_101_305
*980 FILLER_101_317
*981 FILLER_101_329
*982 FILLER_101_335
*983 FILLER_101_337
*984 FILLER_101_349
*985 FILLER_101_361
*986 FILLER_101_373
*987 FILLER_101_385
*988 FILLER_101_39
*989 FILLER_101_391
*990 FILLER_101_393
*991 FILLER_101_405
*992 FILLER_101_417
*993 FILLER_101_429
*994 FILLER_101_441
*995 FILLER_101_447
*996 FILLER_101_449
*997 FILLER_101_461
*998 FILLER_101_473
*999 FILLER_101_485
*1000 FILLER_101_497
*1001 FILLER_101_503
*1002 FILLER_101_505
*1003 FILLER_101_51
*1004 FILLER_101_517
*1005 FILLER_101_529
*1006 FILLER_101_541
*1007 FILLER_101_55
*1008 FILLER_101_553
*1009 FILLER_101_559
*1010 FILLER_101_561
*1011 FILLER_101_57
*1012 FILLER_101_573
*1013 FILLER_101_585
*1014 FILLER_101_597
*1015 FILLER_101_609
*1016 FILLER_101_615
*1017 FILLER_101_617
*1018 FILLER_101_629
*1019 FILLER_101_641
*1020 FILLER_101_653
*1021 FILLER_101_665
*1022 FILLER_101_671
*1023 FILLER_101_673
*1024 FILLER_101_685
*1025 FILLER_101_69
*1026 FILLER_101_697
*1027 FILLER_101_709
*1028 FILLER_101_721
*1029 FILLER_101_727
*1030 FILLER_101_729
*1031 FILLER_101_741
*1032 FILLER_101_753
*1033 FILLER_101_765
*1034 FILLER_101_777
*1035 FILLER_101_783
*1036 FILLER_101_785
*1037 FILLER_101_797
*1038 FILLER_101_809
*1039 FILLER_101_81
*1040 FILLER_101_821
*1041 FILLER_101_833
*1042 FILLER_101_839
*1043 FILLER_101_841
*1044 FILLER_101_853
*1045 FILLER_101_865
*1046 FILLER_101_877
*1047 FILLER_101_889
*1048 FILLER_101_895
*1049 FILLER_101_897
*1050 FILLER_101_909
*1051 FILLER_101_921
*1052 FILLER_101_93
*1053 FILLER_101_933
*1054 FILLER_101_945
*1055 FILLER_101_951
*1056 FILLER_101_953
*1057 FILLER_101_965
*1058 FILLER_101_977
*1059 FILLER_101_989
*1060 FILLER_102_1005
*1061 FILLER_102_1017
*1062 FILLER_102_1029
*1063 FILLER_102_1035
*1064 FILLER_102_1037
*1065 FILLER_102_1049
*1066 FILLER_102_1061
*1067 FILLER_102_1073
*1068 FILLER_102_1085
*1069 FILLER_102_109
*1070 FILLER_102_1091
*1071 FILLER_102_1093
*1072 FILLER_102_1105
*1073 FILLER_102_1117
*1074 FILLER_102_1129
*1075 FILLER_102_1141
*1076 FILLER_102_1147
*1077 FILLER_102_1149
*1078 FILLER_102_1161
*1079 FILLER_102_1173
*1080 FILLER_102_1185
*1081 FILLER_102_1197
*1082 FILLER_102_1203
*1083 FILLER_102_1205
*1084 FILLER_102_121
*1085 FILLER_102_1217
*1086 FILLER_102_1229
*1087 FILLER_102_1241
*1088 FILLER_102_1253
*1089 FILLER_102_1259
*1090 FILLER_102_1261
*1091 FILLER_102_1273
*1092 FILLER_102_1285
*1093 FILLER_102_1297
*1094 FILLER_102_1309
*1095 FILLER_102_1315
*1096 FILLER_102_1317
*1097 FILLER_102_1329
*1098 FILLER_102_133
*1099 FILLER_102_1341
*1100 FILLER_102_1353
*1101 FILLER_102_1365
*1102 FILLER_102_1371
*1103 FILLER_102_1373
*1104 FILLER_102_1385
*1105 FILLER_102_139
*1106 FILLER_102_1397
*1107 FILLER_102_1409
*1108 FILLER_102_141
*1109 FILLER_102_1421
*1110 FILLER_102_1427
*1111 FILLER_102_1429
*1112 FILLER_102_1441
*1113 FILLER_102_1453
*1114 FILLER_102_1465
*1115 FILLER_102_1477
*1116 FILLER_102_1483
*1117 FILLER_102_1485
*1118 FILLER_102_1497
*1119 FILLER_102_15
*1120 FILLER_102_1509
*1121 FILLER_102_1521
*1122 FILLER_102_153
*1123 FILLER_102_1533
*1124 FILLER_102_1539
*1125 FILLER_102_1541
*1126 FILLER_102_1553
*1127 FILLER_102_1565
*1128 FILLER_102_1577
*1129 FILLER_102_1589
*1130 FILLER_102_1595
*1131 FILLER_102_1597
*1132 FILLER_102_1609
*1133 FILLER_102_1621
*1134 FILLER_102_1633
*1135 FILLER_102_1645
*1136 FILLER_102_165
*1137 FILLER_102_1651
*1138 FILLER_102_1653
*1139 FILLER_102_1665
*1140 FILLER_102_1677
*1141 FILLER_102_1689
*1142 FILLER_102_1701
*1143 FILLER_102_1707
*1144 FILLER_102_1709
*1145 FILLER_102_1721
*1146 FILLER_102_1733
*1147 FILLER_102_1745
*1148 FILLER_102_1757
*1149 FILLER_102_1763
*1150 FILLER_102_1765
*1151 FILLER_102_177
*1152 FILLER_102_1777
*1153 FILLER_102_1789
*1154 FILLER_102_1801
*1155 FILLER_102_1813
*1156 FILLER_102_1819
*1157 FILLER_102_1821
*1158 FILLER_102_1833
*1159 FILLER_102_1845
*1160 FILLER_102_1857
*1161 FILLER_102_1869
*1162 FILLER_102_1875
*1163 FILLER_102_1877
*1164 FILLER_102_1889
*1165 FILLER_102_189
*1166 FILLER_102_1901
*1167 FILLER_102_1913
*1168 FILLER_102_1925
*1169 FILLER_102_195
*1170 FILLER_102_197
*1171 FILLER_102_209
*1172 FILLER_102_221
*1173 FILLER_102_233
*1174 FILLER_102_245
*1175 FILLER_102_251
*1176 FILLER_102_253
*1177 FILLER_102_265
*1178 FILLER_102_27
*1179 FILLER_102_277
*1180 FILLER_102_289
*1181 FILLER_102_29
*1182 FILLER_102_3
*1183 FILLER_102_301
*1184 FILLER_102_307
*1185 FILLER_102_309
*1186 FILLER_102_321
*1187 FILLER_102_333
*1188 FILLER_102_345
*1189 FILLER_102_357
*1190 FILLER_102_363
*1191 FILLER_102_365
*1192 FILLER_102_377
*1193 FILLER_102_389
*1194 FILLER_102_401
*1195 FILLER_102_41
*1196 FILLER_102_413
*1197 FILLER_102_419
*1198 FILLER_102_421
*1199 FILLER_102_433
*1200 FILLER_102_445
*1201 FILLER_102_457
*1202 FILLER_102_469
*1203 FILLER_102_475
*1204 FILLER_102_477
*1205 FILLER_102_489
*1206 FILLER_102_501
*1207 FILLER_102_513
*1208 FILLER_102_525
*1209 FILLER_102_53
*1210 FILLER_102_531
*1211 FILLER_102_533
*1212 FILLER_102_545
*1213 FILLER_102_557
*1214 FILLER_102_569
*1215 FILLER_102_581
*1216 FILLER_102_587
*1217 FILLER_102_589
*1218 FILLER_102_601
*1219 FILLER_102_613
*1220 FILLER_102_625
*1221 FILLER_102_637
*1222 FILLER_102_643
*1223 FILLER_102_645
*1224 FILLER_102_65
*1225 FILLER_102_657
*1226 FILLER_102_669
*1227 FILLER_102_681
*1228 FILLER_102_693
*1229 FILLER_102_699
*1230 FILLER_102_701
*1231 FILLER_102_713
*1232 FILLER_102_725
*1233 FILLER_102_737
*1234 FILLER_102_749
*1235 FILLER_102_755
*1236 FILLER_102_757
*1237 FILLER_102_769
*1238 FILLER_102_77
*1239 FILLER_102_781
*1240 FILLER_102_793
*1241 FILLER_102_805
*1242 FILLER_102_811
*1243 FILLER_102_813
*1244 FILLER_102_825
*1245 FILLER_102_83
*1246 FILLER_102_837
*1247 FILLER_102_849
*1248 FILLER_102_85
*1249 FILLER_102_861
*1250 FILLER_102_867
*1251 FILLER_102_869
*1252 FILLER_102_881
*1253 FILLER_102_893
*1254 FILLER_102_905
*1255 FILLER_102_917
*1256 FILLER_102_923
*1257 FILLER_102_925
*1258 FILLER_102_937
*1259 FILLER_102_949
*1260 FILLER_102_961
*1261 FILLER_102_97
*1262 FILLER_102_973
*1263 FILLER_102_979
*1264 FILLER_102_981
*1265 FILLER_102_993
*1266 FILLER_103_1001
*1267 FILLER_103_1007
*1268 FILLER_103_1009
*1269 FILLER_103_1021
*1270 FILLER_103_1033
*1271 FILLER_103_1045
*1272 FILLER_103_105
*1273 FILLER_103_1057
*1274 FILLER_103_1063
*1275 FILLER_103_1065
*1276 FILLER_103_1077
*1277 FILLER_103_1089
*1278 FILLER_103_1101
*1279 FILLER_103_111
*1280 FILLER_103_1113
*1281 FILLER_103_1119
*1282 FILLER_103_1121
*1283 FILLER_103_113
*1284 FILLER_103_1133
*1285 FILLER_103_1145
*1286 FILLER_103_1157
*1287 FILLER_103_1169
*1288 FILLER_103_1175
*1289 FILLER_103_1177
*1290 FILLER_103_1189
*1291 FILLER_103_1201
*1292 FILLER_103_1213
*1293 FILLER_103_1225
*1294 FILLER_103_1231
*1295 FILLER_103_1233
*1296 FILLER_103_1245
*1297 FILLER_103_125
*1298 FILLER_103_1257
*1299 FILLER_103_1269
*1300 FILLER_103_1281
*1301 FILLER_103_1287
*1302 FILLER_103_1289
*1303 FILLER_103_1301
*1304 FILLER_103_1313
*1305 FILLER_103_1325
*1306 FILLER_103_1337
*1307 FILLER_103_1343
*1308 FILLER_103_1345
*1309 FILLER_103_1357
*1310 FILLER_103_1369
*1311 FILLER_103_137
*1312 FILLER_103_1381
*1313 FILLER_103_1393
*1314 FILLER_103_1399
*1315 FILLER_103_1401
*1316 FILLER_103_1413
*1317 FILLER_103_1425
*1318 FILLER_103_1437
*1319 FILLER_103_1449
*1320 FILLER_103_1455
*1321 FILLER_103_1457
*1322 FILLER_103_1469
*1323 FILLER_103_1481
*1324 FILLER_103_149
*1325 FILLER_103_1493
*1326 FILLER_103_15
*1327 FILLER_103_1505
*1328 FILLER_103_1511
*1329 FILLER_103_1513
*1330 FILLER_103_1525
*1331 FILLER_103_1537
*1332 FILLER_103_1549
*1333 FILLER_103_1561
*1334 FILLER_103_1567
*1335 FILLER_103_1569
*1336 FILLER_103_1581
*1337 FILLER_103_1593
*1338 FILLER_103_1605
*1339 FILLER_103_161
*1340 FILLER_103_1617
*1341 FILLER_103_1623
*1342 FILLER_103_1625
*1343 FILLER_103_1637
*1344 FILLER_103_1649
*1345 FILLER_103_1661
*1346 FILLER_103_167
*1347 FILLER_103_1673
*1348 FILLER_103_1679
*1349 FILLER_103_1681
*1350 FILLER_103_169
*1351 FILLER_103_1693
*1352 FILLER_103_1705
*1353 FILLER_103_1717
*1354 FILLER_103_1729
*1355 FILLER_103_1735
*1356 FILLER_103_1737
*1357 FILLER_103_1749
*1358 FILLER_103_1761
*1359 FILLER_103_1773
*1360 FILLER_103_1785
*1361 FILLER_103_1791
*1362 FILLER_103_1793
*1363 FILLER_103_1805
*1364 FILLER_103_181
*1365 FILLER_103_1817
*1366 FILLER_103_1829
*1367 FILLER_103_1841
*1368 FILLER_103_1847
*1369 FILLER_103_1849
*1370 FILLER_103_1861
*1371 FILLER_103_1873
*1372 FILLER_103_1885
*1373 FILLER_103_1897
*1374 FILLER_103_1903
*1375 FILLER_103_1905
*1376 FILLER_103_1917
*1377 FILLER_103_193
*1378 FILLER_103_205
*1379 FILLER_103_217
*1380 FILLER_103_223
*1381 FILLER_103_225
*1382 FILLER_103_237
*1383 FILLER_103_249
*1384 FILLER_103_261
*1385 FILLER_103_27
*1386 FILLER_103_273
*1387 FILLER_103_279
*1388 FILLER_103_281
*1389 FILLER_103_293
*1390 FILLER_103_3
*1391 FILLER_103_305
*1392 FILLER_103_317
*1393 FILLER_103_329
*1394 FILLER_103_335
*1395 FILLER_103_337
*1396 FILLER_103_349
*1397 FILLER_103_361
*1398 FILLER_103_373
*1399 FILLER_103_385
*1400 FILLER_103_39
*1401 FILLER_103_391
*1402 FILLER_103_393
*1403 FILLER_103_405
*1404 FILLER_103_417
*1405 FILLER_103_429
*1406 FILLER_103_441
*1407 FILLER_103_447
*1408 FILLER_103_449
*1409 FILLER_103_461
*1410 FILLER_103_473
*1411 FILLER_103_485
*1412 FILLER_103_497
*1413 FILLER_103_503
*1414 FILLER_103_505
*1415 FILLER_103_51
*1416 FILLER_103_517
*1417 FILLER_103_529
*1418 FILLER_103_541
*1419 FILLER_103_55
*1420 FILLER_103_553
*1421 FILLER_103_559
*1422 FILLER_103_561
*1423 FILLER_103_57
*1424 FILLER_103_573
*1425 FILLER_103_585
*1426 FILLER_103_597
*1427 FILLER_103_609
*1428 FILLER_103_615
*1429 FILLER_103_617
*1430 FILLER_103_629
*1431 FILLER_103_641
*1432 FILLER_103_653
*1433 FILLER_103_665
*1434 FILLER_103_671
*1435 FILLER_103_673
*1436 FILLER_103_685
*1437 FILLER_103_69
*1438 FILLER_103_697
*1439 FILLER_103_709
*1440 FILLER_103_721
*1441 FILLER_103_727
*1442 FILLER_103_729
*1443 FILLER_103_741
*1444 FILLER_103_753
*1445 FILLER_103_765
*1446 FILLER_103_777
*1447 FILLER_103_783
*1448 FILLER_103_785
*1449 FILLER_103_797
*1450 FILLER_103_809
*1451 FILLER_103_81
*1452 FILLER_103_821
*1453 FILLER_103_833
*1454 FILLER_103_839
*1455 FILLER_103_841
*1456 FILLER_103_853
*1457 FILLER_103_865
*1458 FILLER_103_877
*1459 FILLER_103_889
*1460 FILLER_103_895
*1461 FILLER_103_897
*1462 FILLER_103_909
*1463 FILLER_103_921
*1464 FILLER_103_93
*1465 FILLER_103_933
*1466 FILLER_103_945
*1467 FILLER_103_951
*1468 FILLER_103_953
*1469 FILLER_103_965
*1470 FILLER_103_977
*1471 FILLER_103_989
*1472 FILLER_104_1005
*1473 FILLER_104_1017
*1474 FILLER_104_1029
*1475 FILLER_104_1035
*1476 FILLER_104_1037
*1477 FILLER_104_1049
*1478 FILLER_104_1061
*1479 FILLER_104_1073
*1480 FILLER_104_1085
*1481 FILLER_104_109
*1482 FILLER_104_1091
*1483 FILLER_104_1093
*1484 FILLER_104_1105
*1485 FILLER_104_1117
*1486 FILLER_104_1129
*1487 FILLER_104_1141
*1488 FILLER_104_1147
*1489 FILLER_104_1149
*1490 FILLER_104_1161
*1491 FILLER_104_1173
*1492 FILLER_104_1185
*1493 FILLER_104_1197
*1494 FILLER_104_1203
*1495 FILLER_104_1205
*1496 FILLER_104_121
*1497 FILLER_104_1217
*1498 FILLER_104_1229
*1499 FILLER_104_1241
*1500 FILLER_104_1253
*1501 FILLER_104_1259
*1502 FILLER_104_1261
*1503 FILLER_104_1273
*1504 FILLER_104_1285
*1505 FILLER_104_1297
*1506 FILLER_104_1309
*1507 FILLER_104_1315
*1508 FILLER_104_1317
*1509 FILLER_104_1329
*1510 FILLER_104_133
*1511 FILLER_104_1341
*1512 FILLER_104_1353
*1513 FILLER_104_1365
*1514 FILLER_104_1371
*1515 FILLER_104_1373
*1516 FILLER_104_1385
*1517 FILLER_104_139
*1518 FILLER_104_1397
*1519 FILLER_104_1409
*1520 FILLER_104_141
*1521 FILLER_104_1421
*1522 FILLER_104_1427
*1523 FILLER_104_1429
*1524 FILLER_104_1441
*1525 FILLER_104_1453
*1526 FILLER_104_1465
*1527 FILLER_104_1477
*1528 FILLER_104_1483
*1529 FILLER_104_1485
*1530 FILLER_104_1497
*1531 FILLER_104_15
*1532 FILLER_104_1509
*1533 FILLER_104_1521
*1534 FILLER_104_153
*1535 FILLER_104_1533
*1536 FILLER_104_1539
*1537 FILLER_104_1541
*1538 FILLER_104_1553
*1539 FILLER_104_1565
*1540 FILLER_104_1577
*1541 FILLER_104_1589
*1542 FILLER_104_1595
*1543 FILLER_104_1597
*1544 FILLER_104_1609
*1545 FILLER_104_1621
*1546 FILLER_104_1633
*1547 FILLER_104_1645
*1548 FILLER_104_165
*1549 FILLER_104_1651
*1550 FILLER_104_1653
*1551 FILLER_104_1665
*1552 FILLER_104_1677
*1553 FILLER_104_1689
*1554 FILLER_104_1701
*1555 FILLER_104_1707
*1556 FILLER_104_1709
*1557 FILLER_104_1721
*1558 FILLER_104_1733
*1559 FILLER_104_1745
*1560 FILLER_104_1757
*1561 FILLER_104_1763
*1562 FILLER_104_1765
*1563 FILLER_104_177
*1564 FILLER_104_1777
*1565 FILLER_104_1789
*1566 FILLER_104_1801
*1567 FILLER_104_1813
*1568 FILLER_104_1819
*1569 FILLER_104_1821
*1570 FILLER_104_1833
*1571 FILLER_104_1845
*1572 FILLER_104_1857
*1573 FILLER_104_1869
*1574 FILLER_104_1875
*1575 FILLER_104_1877
*1576 FILLER_104_1889
*1577 FILLER_104_189
*1578 FILLER_104_1901